OpenDSS/IEEETestCases/13Bus/IEEE13Nodeckt_671_elem_kVA.txt

  Bus   (node ref)  Node       V (kV)    Angle    p.u.   Base kV

671 ....... 1       2.3605 /_   -5.4    0.9828     4.160        1-2     4.1439 /_   27.1   0.99614
   -        2       2.4985 /_ -122.4    1.0403     4.160        2-3     4.2053 /_  -94.4    1.0109
   -        3       2.3174 /_  116.0   0.96488     4.160        3-1     4.0787 /_  145.6   0.98046

CIRCUIT ELEMENT CURRENTS

(Currents into element from indicated bus)

Power Delivery Elements

  Bus         Phase    Magnitude, A     Angle      (Real)   +j  (Imag)

ELEMENT = "Line.670671"
670             1           473.79 /_  -27.0 =     422.01 +j   -215.39
670             2           188.82 /_ -132.6 =     -127.7 +j    -139.1
670             3           424.94 /_  101.3 =    -82.945 +j    416.77
670         Resid           220.35 /_ -163.6 =     -211.36 +j   -62.284
------------
671             1           473.79 /_  153.0 =    -422.01 +j    215.39
671             2           188.82 /_   47.4 =      127.7 +j     139.1
671             3           424.94 /_  -78.7 =     82.945 +j   -416.77
671         Resid           220.35 /_   16.4 =      211.36 +j    62.284


ELEMENT = "Line.671680"
671             1       0.00057229 /_   85.7 =  4.3055E-005 +j 0.00057066
671             2       0.00059752 /_  -32.9 =  0.00050156 +j -0.00032475
671             3       0.00057207 /_ -154.5 =  -0.00051631 +j -0.00024634
671         Resid      2.8308E-005 /_  179.1 =   -2.8305E-005 +j 4.2628E-007
------------
680             1      2.8761E-012 /_ -108.4 =  -9.0949E-013 +j -2.7285E-012
680             2      2.3739E-012 /_  -16.7 =  2.2737E-012 +j -6.8212E-013
680             3      2.5724E-012 /_  -45.0 =  1.819E-012 +j -1.819E-012
680         Resid      6.1222E-012 /_  121.3 =   -3.1832E-012 +j 5.2296E-012


ELEMENT = "Line.671684"
671             1           62.697 /_  -39.2 =      48.59 +j   -39.622
671             3           71.157 /_  121.2 =    -36.823 +j    60.888
671         Resid           24.305 /_ -119.0 =     -11.767 +j   -21.266
------------
684             1           62.697 /_  140.8 =     -48.59 +j    39.622
684             3           71.157 /_  -58.8 =     36.823 +j   -60.888
684         Resid           24.305 /_   61.0 =      11.767 +j    21.266


ELEMENT = "Line.671692"
671             1           230.95 /_  -18.4 =      219.1 +j   -73.017
671             2           68.508 /_  -55.9 =     38.391 +j   -56.741
671             3           180.32 /_  108.7 =    -57.895 +j    170.78
671         Resid           203.77 /_ -168.4 =     -199.59 +j   -41.018
------------
692             1           230.95 /_  161.6 =     -219.1 +j    73.017
692             2           68.508 /_  124.1 =    -38.391 +j    56.741
692             3           180.32 /_  -71.3 =     57.895 +j   -170.78
692         Resid           203.77 /_   11.6 =      199.59 +j    41.018


= = = = = = = = = = = = = = = = = = =  = = = = = = = = = = =  = =

Power Conversion Elements

  Bus         Phase    Magnitude, A     Angle      (Real)   +j  (Imag)

ELEMENT = "Load.671"
671             1           185.39 /_  -33.7 =     154.31 +j   -102.75
671             2           185.38 /_ -153.6 =    -166.09 +j   -82.351
671             3           185.47 /_   86.4 =      11.78 +j     185.1



CIRCUIT ELEMENT POWER FLOW

(Power Flow into element from indicated Bus)

  Bus       Phase     kW     +j   kvar           kVA           PF

ELEMENT = "Line.670671"     
671             1    -1039.4 +j    -412.88        1118.4      0.9294
671             2    -464.38 +j    -83.254        471.78      0.9843
671             3     -952.4 +j    -250.41        984.77      0.9671
 TERMINAL TOTAL      -2456.1 +j    -746.54        2567.1      0.9568
------------
ELEMENT = "Line.670671"     
670             1     1047.1 +j      457.1        1142.5      0.9165
670             2     460.01 +j     85.934        467.97      0.9830
670             3     971.75 +j     275.84        1010.1      0.9620
 TERMINAL TOTAL       2478.9 +j     818.87        2610.6      0.9495
ELEMENT = "Line.671680"     
671             1 -2.498E-005 +j -0.0013506     0.0013509      0.0185
671             2 1.3869E-005 +j -0.0014928     0.0014929     -0.0093
671             3 1.1111E-005 +j -0.0013257     0.0013257     -0.0084
 TERMINAL TOTAL   1.1865E-011 +j -0.0041691     0.0041691      0.0000
------------
ELEMENT = "Line.671680"     
680             1 -1.5342E-012 +j 6.6132E-012    6.7888E-012     -0.2260
680             2 -1.604E-012 +j -5.7101E-012    5.9311E-012      0.2704
680             3 -5.6362E-012 +j 1.9422E-012    5.9614E-012     -0.9454
 TERMINAL TOTAL   -8.7744E-012 +j 2.8453E-012    9.2242E-012     -0.9512
ELEMENT = "Line.671684"     
671             1     122.95 +j     82.372        147.99      0.8308
671             3     164.23 +j     -14.88         164.9     -0.9959
 TERMINAL TOTAL       287.18 +j     67.492           295      0.9735
------------
ELEMENT = "Line.671684"     
684             1    -122.74 +j    -82.162         147.7      0.8310
684             3    -163.86 +j      15.14        164.55     -0.9958
 TERMINAL TOTAL       -286.6 +j    -67.021        294.33      0.9737
ELEMENT = "Line.671692"     
671             1     531.04 +j     123.16        545.14      0.9741
671             2      68.33 +j    -156.94        171.17     -0.3992
671             3     414.53 +j     52.804        417.88      0.9920
 TERMINAL TOTAL       1013.9 +j     19.022        1014.1      0.9998
------------
ELEMENT = "Line.671692"     
692             1    -531.04 +j    -123.16        545.14      0.9741
692             2     -68.33 +j     156.94        171.17     -0.3992
692             3    -414.53 +j    -52.804        417.88      0.9920
 TERMINAL TOTAL      -1013.9 +j    -19.022        1014.1      0.9998
= = = = = = = = = = = = = = = = = = =  = = = = = = = = = = =  = =

Power Conversion Elements

  Bus         Phase     kW   +j  kvar         kVA         PF

ELEMENT = "Load.671"        
671             1     385.36 +j     207.35         437.6      0.8806
671             2     396.04 +j      240.2        463.19      0.8550
671             3     373.62 +j     212.49        429.82      0.8693
 TERMINAL TOTAL         1155 +j     660.04        1330.3      0.8682

